
---------- Begin Simulation Statistics ----------
sim_seconds                                  0.724899                       # Number of seconds simulated
sim_ticks                                724898747000                       # Number of ticks simulated
final_tick                               724898747000                       # Number of ticks from beginning of simulation (restored from checkpoints and never reset)
sim_freq                                 1000000000000                       # Frequency of simulated ticks
host_inst_rate                                 759851                       # Simulator instruction rate (inst/s)
host_op_rate                                  1323734                       # Simulator op (including micro ops) rate (op/s)
host_tick_rate                              358023184                       # Simulator tick rate (ticks/s)
host_mem_usage                                4634344                       # Number of bytes of host memory used
host_seconds                                  2024.73                       # Real time elapsed on the host
sim_insts                                  1538490769                       # Number of instructions simulated
sim_ops                                    2680197994                       # Number of ops (including micro ops) simulated
system.voltage_domain.voltage                       1                       # Voltage in Volts
system.clk_domain.clock                          1000                       # Clock period in ticks
system.mem_ctrls.pwrStateResidencyTicks::UNDEFINED 724898747000                       # Cumulative time (in ticks) in various power states
system.mem_ctrls.bytes_read::.cpu0.inst        338240                       # Number of bytes read from this memory
system.mem_ctrls.bytes_read::.cpu0.data       3206336                       # Number of bytes read from this memory
system.mem_ctrls.bytes_read::.cpu1.inst         21568                       # Number of bytes read from this memory
system.mem_ctrls.bytes_read::.cpu1.data        695552                       # Number of bytes read from this memory
system.mem_ctrls.bytes_read::.cpu2.inst          5184                       # Number of bytes read from this memory
system.mem_ctrls.bytes_read::.cpu2.data        400704                       # Number of bytes read from this memory
system.mem_ctrls.bytes_read::.cpu3.inst         18368                       # Number of bytes read from this memory
system.mem_ctrls.bytes_read::.cpu3.data        397248                       # Number of bytes read from this memory
system.mem_ctrls.bytes_read::.cpu4.inst          3520                       # Number of bytes read from this memory
system.mem_ctrls.bytes_read::.cpu4.data        400768                       # Number of bytes read from this memory
system.mem_ctrls.bytes_read::.cpu5.inst         24768                       # Number of bytes read from this memory
system.mem_ctrls.bytes_read::.cpu5.data       2866496                       # Number of bytes read from this memory
system.mem_ctrls.bytes_read::total            8378752                       # Number of bytes read from this memory
system.mem_ctrls.bytes_inst_read::.cpu0.inst       338240                       # Number of instructions bytes read from this memory
system.mem_ctrls.bytes_inst_read::.cpu1.inst        21568                       # Number of instructions bytes read from this memory
system.mem_ctrls.bytes_inst_read::.cpu2.inst         5184                       # Number of instructions bytes read from this memory
system.mem_ctrls.bytes_inst_read::.cpu3.inst        18368                       # Number of instructions bytes read from this memory
system.mem_ctrls.bytes_inst_read::.cpu4.inst         3520                       # Number of instructions bytes read from this memory
system.mem_ctrls.bytes_inst_read::.cpu5.inst        24768                       # Number of instructions bytes read from this memory
system.mem_ctrls.bytes_inst_read::total        411648                       # Number of instructions bytes read from this memory
system.mem_ctrls.bytes_written::.writebacks      2803008                       # Number of bytes written to this memory
system.mem_ctrls.bytes_written::total         2803008                       # Number of bytes written to this memory
system.mem_ctrls.num_reads::.cpu0.inst           5285                       # Number of read requests responded to by this memory
system.mem_ctrls.num_reads::.cpu0.data          50099                       # Number of read requests responded to by this memory
system.mem_ctrls.num_reads::.cpu1.inst            337                       # Number of read requests responded to by this memory
system.mem_ctrls.num_reads::.cpu1.data          10868                       # Number of read requests responded to by this memory
system.mem_ctrls.num_reads::.cpu2.inst             81                       # Number of read requests responded to by this memory
system.mem_ctrls.num_reads::.cpu2.data           6261                       # Number of read requests responded to by this memory
system.mem_ctrls.num_reads::.cpu3.inst            287                       # Number of read requests responded to by this memory
system.mem_ctrls.num_reads::.cpu3.data           6207                       # Number of read requests responded to by this memory
system.mem_ctrls.num_reads::.cpu4.inst             55                       # Number of read requests responded to by this memory
system.mem_ctrls.num_reads::.cpu4.data           6262                       # Number of read requests responded to by this memory
system.mem_ctrls.num_reads::.cpu5.inst            387                       # Number of read requests responded to by this memory
system.mem_ctrls.num_reads::.cpu5.data          44789                       # Number of read requests responded to by this memory
system.mem_ctrls.num_reads::total              130918                       # Number of read requests responded to by this memory
system.mem_ctrls.num_writes::.writebacks        43797                       # Number of write requests responded to by this memory
system.mem_ctrls.num_writes::total              43797                       # Number of write requests responded to by this memory
system.mem_ctrls.bw_read::.cpu0.inst           466603                       # Total read bandwidth from this memory (bytes/s)
system.mem_ctrls.bw_read::.cpu0.data          4423150                       # Total read bandwidth from this memory (bytes/s)
system.mem_ctrls.bw_read::.cpu1.inst            29753                       # Total read bandwidth from this memory (bytes/s)
system.mem_ctrls.bw_read::.cpu1.data           959516                       # Total read bandwidth from this memory (bytes/s)
system.mem_ctrls.bw_read::.cpu2.inst             7151                       # Total read bandwidth from this memory (bytes/s)
system.mem_ctrls.bw_read::.cpu2.data           552772                       # Total read bandwidth from this memory (bytes/s)
system.mem_ctrls.bw_read::.cpu3.inst            25339                       # Total read bandwidth from this memory (bytes/s)
system.mem_ctrls.bw_read::.cpu3.data           548005                       # Total read bandwidth from this memory (bytes/s)
system.mem_ctrls.bw_read::.cpu4.inst             4856                       # Total read bandwidth from this memory (bytes/s)
system.mem_ctrls.bw_read::.cpu4.data           552861                       # Total read bandwidth from this memory (bytes/s)
system.mem_ctrls.bw_read::.cpu5.inst            34168                       # Total read bandwidth from this memory (bytes/s)
system.mem_ctrls.bw_read::.cpu5.data          3954340                       # Total read bandwidth from this memory (bytes/s)
system.mem_ctrls.bw_read::total              11558514                       # Total read bandwidth from this memory (bytes/s)
system.mem_ctrls.bw_inst_read::.cpu0.inst       466603                       # Instruction read bandwidth from this memory (bytes/s)
system.mem_ctrls.bw_inst_read::.cpu1.inst        29753                       # Instruction read bandwidth from this memory (bytes/s)
system.mem_ctrls.bw_inst_read::.cpu2.inst         7151                       # Instruction read bandwidth from this memory (bytes/s)
system.mem_ctrls.bw_inst_read::.cpu3.inst        25339                       # Instruction read bandwidth from this memory (bytes/s)
system.mem_ctrls.bw_inst_read::.cpu4.inst         4856                       # Instruction read bandwidth from this memory (bytes/s)
system.mem_ctrls.bw_inst_read::.cpu5.inst        34168                       # Instruction read bandwidth from this memory (bytes/s)
system.mem_ctrls.bw_inst_read::total           567870                       # Instruction read bandwidth from this memory (bytes/s)
system.mem_ctrls.bw_write::.writebacks        3866758                       # Write bandwidth from this memory (bytes/s)
system.mem_ctrls.bw_write::total              3866758                       # Write bandwidth from this memory (bytes/s)
system.mem_ctrls.bw_total::.writebacks        3866758                       # Total bandwidth to/from this memory (bytes/s)
system.mem_ctrls.bw_total::.cpu0.inst          466603                       # Total bandwidth to/from this memory (bytes/s)
system.mem_ctrls.bw_total::.cpu0.data         4423150                       # Total bandwidth to/from this memory (bytes/s)
system.mem_ctrls.bw_total::.cpu1.inst           29753                       # Total bandwidth to/from this memory (bytes/s)
system.mem_ctrls.bw_total::.cpu1.data          959516                       # Total bandwidth to/from this memory (bytes/s)
system.mem_ctrls.bw_total::.cpu2.inst            7151                       # Total bandwidth to/from this memory (bytes/s)
system.mem_ctrls.bw_total::.cpu2.data          552772                       # Total bandwidth to/from this memory (bytes/s)
system.mem_ctrls.bw_total::.cpu3.inst           25339                       # Total bandwidth to/from this memory (bytes/s)
system.mem_ctrls.bw_total::.cpu3.data          548005                       # Total bandwidth to/from this memory (bytes/s)
system.mem_ctrls.bw_total::.cpu4.inst            4856                       # Total bandwidth to/from this memory (bytes/s)
system.mem_ctrls.bw_total::.cpu4.data          552861                       # Total bandwidth to/from this memory (bytes/s)
system.mem_ctrls.bw_total::.cpu5.inst           34168                       # Total bandwidth to/from this memory (bytes/s)
system.mem_ctrls.bw_total::.cpu5.data         3954340                       # Total bandwidth to/from this memory (bytes/s)
system.mem_ctrls.bw_total::total             15425272                       # Total bandwidth to/from this memory (bytes/s)
system.mem_ctrls.priorityMinLatency      0.000000000000                       # per QoS priority minimum request to response latency (s)
system.mem_ctrls.priorityMaxLatency      0.000000000000                       # per QoS priority maximum request to response latency (s)
system.mem_ctrls.numReadWriteTurnArounds            0                       # Number of turnarounds from READ to WRITE
system.mem_ctrls.numWriteReadTurnArounds            0                       # Number of turnarounds from WRITE to READ
system.mem_ctrls.numStayReadState                   0                       # Number of times bus staying in READ state
system.mem_ctrls.numStayWriteState                  0                       # Number of times bus staying in WRITE state
system.mem_ctrls.readReqs                           0                       # Number of read requests accepted
system.mem_ctrls.writeReqs                          0                       # Number of write requests accepted
system.mem_ctrls.readBursts                         0                       # Number of DRAM read bursts, including those serviced by the write queue
system.mem_ctrls.writeBursts                        0                       # Number of DRAM write bursts, including those merged in the write queue
system.mem_ctrls.bytesReadDRAM                      0                       # Total number of bytes read from DRAM
system.mem_ctrls.bytesReadWrQ                       0                       # Total number of bytes read from write queue
system.mem_ctrls.bytesWritten                       0                       # Total number of bytes written to DRAM
system.mem_ctrls.bytesReadSys                       0                       # Total read bytes from the system interface side
system.mem_ctrls.bytesWrittenSys                    0                       # Total written bytes from the system interface side
system.mem_ctrls.servicedByWrQ                      0                       # Number of DRAM read bursts serviced by the write queue
system.mem_ctrls.mergedWrBursts                     0                       # Number of DRAM write bursts merged with an existing one
system.mem_ctrls.neitherReadNorWriteReqs            0                       # Number of requests that are neither read nor write
system.mem_ctrls.perBankRdBursts::0                 0                       # Per bank write bursts
system.mem_ctrls.perBankRdBursts::1                 0                       # Per bank write bursts
system.mem_ctrls.perBankRdBursts::2                 0                       # Per bank write bursts
system.mem_ctrls.perBankRdBursts::3                 0                       # Per bank write bursts
system.mem_ctrls.perBankRdBursts::4                 0                       # Per bank write bursts
system.mem_ctrls.perBankRdBursts::5                 0                       # Per bank write bursts
system.mem_ctrls.perBankRdBursts::6                 0                       # Per bank write bursts
system.mem_ctrls.perBankRdBursts::7                 0                       # Per bank write bursts
system.mem_ctrls.perBankRdBursts::8                 0                       # Per bank write bursts
system.mem_ctrls.perBankRdBursts::9                 0                       # Per bank write bursts
system.mem_ctrls.perBankRdBursts::10                0                       # Per bank write bursts
system.mem_ctrls.perBankRdBursts::11                0                       # Per bank write bursts
system.mem_ctrls.perBankRdBursts::12                0                       # Per bank write bursts
system.mem_ctrls.perBankRdBursts::13                0                       # Per bank write bursts
system.mem_ctrls.perBankRdBursts::14                0                       # Per bank write bursts
system.mem_ctrls.perBankRdBursts::15                0                       # Per bank write bursts
system.mem_ctrls.perBankWrBursts::0                 0                       # Per bank write bursts
system.mem_ctrls.perBankWrBursts::1                 0                       # Per bank write bursts
system.mem_ctrls.perBankWrBursts::2                 0                       # Per bank write bursts
system.mem_ctrls.perBankWrBursts::3                 0                       # Per bank write bursts
system.mem_ctrls.perBankWrBursts::4                 0                       # Per bank write bursts
system.mem_ctrls.perBankWrBursts::5                 0                       # Per bank write bursts
system.mem_ctrls.perBankWrBursts::6                 0                       # Per bank write bursts
system.mem_ctrls.perBankWrBursts::7                 0                       # Per bank write bursts
system.mem_ctrls.perBankWrBursts::8                 0                       # Per bank write bursts
system.mem_ctrls.perBankWrBursts::9                 0                       # Per bank write bursts
system.mem_ctrls.perBankWrBursts::10                0                       # Per bank write bursts
system.mem_ctrls.perBankWrBursts::11                0                       # Per bank write bursts
system.mem_ctrls.perBankWrBursts::12                0                       # Per bank write bursts
system.mem_ctrls.perBankWrBursts::13                0                       # Per bank write bursts
system.mem_ctrls.perBankWrBursts::14                0                       # Per bank write bursts
system.mem_ctrls.perBankWrBursts::15                0                       # Per bank write bursts
system.mem_ctrls.numRdRetry                         0                       # Number of times read queue was full causing retry
system.mem_ctrls.numWrRetry                         0                       # Number of times write queue was full causing retry
system.mem_ctrls.totGap                             0                       # Total gap between requests
system.mem_ctrls.readPktSize::0                     0                       # Read request sizes (log2)
system.mem_ctrls.readPktSize::1                     0                       # Read request sizes (log2)
system.mem_ctrls.readPktSize::2                     0                       # Read request sizes (log2)
system.mem_ctrls.readPktSize::3                     0                       # Read request sizes (log2)
system.mem_ctrls.readPktSize::4                     0                       # Read request sizes (log2)
system.mem_ctrls.readPktSize::5                     0                       # Read request sizes (log2)
system.mem_ctrls.readPktSize::6                     0                       # Read request sizes (log2)
system.mem_ctrls.writePktSize::0                    0                       # Write request sizes (log2)
system.mem_ctrls.writePktSize::1                    0                       # Write request sizes (log2)
system.mem_ctrls.writePktSize::2                    0                       # Write request sizes (log2)
system.mem_ctrls.writePktSize::3                    0                       # Write request sizes (log2)
system.mem_ctrls.writePktSize::4                    0                       # Write request sizes (log2)
system.mem_ctrls.writePktSize::5                    0                       # Write request sizes (log2)
system.mem_ctrls.writePktSize::6                    0                       # Write request sizes (log2)
system.mem_ctrls.rdQLenPdf::0                       0                       # What read queue length does an incoming req see
system.mem_ctrls.rdQLenPdf::1                       0                       # What read queue length does an incoming req see
system.mem_ctrls.rdQLenPdf::2                       0                       # What read queue length does an incoming req see
system.mem_ctrls.rdQLenPdf::3                       0                       # What read queue length does an incoming req see
system.mem_ctrls.rdQLenPdf::4                       0                       # What read queue length does an incoming req see
system.mem_ctrls.rdQLenPdf::5                       0                       # What read queue length does an incoming req see
system.mem_ctrls.rdQLenPdf::6                       0                       # What read queue length does an incoming req see
system.mem_ctrls.rdQLenPdf::7                       0                       # What read queue length does an incoming req see
system.mem_ctrls.rdQLenPdf::8                       0                       # What read queue length does an incoming req see
system.mem_ctrls.rdQLenPdf::9                       0                       # What read queue length does an incoming req see
system.mem_ctrls.rdQLenPdf::10                      0                       # What read queue length does an incoming req see
system.mem_ctrls.rdQLenPdf::11                      0                       # What read queue length does an incoming req see
system.mem_ctrls.rdQLenPdf::12                      0                       # What read queue length does an incoming req see
system.mem_ctrls.rdQLenPdf::13                      0                       # What read queue length does an incoming req see
system.mem_ctrls.rdQLenPdf::14                      0                       # What read queue length does an incoming req see
system.mem_ctrls.rdQLenPdf::15                      0                       # What read queue length does an incoming req see
system.mem_ctrls.rdQLenPdf::16                      0                       # What read queue length does an incoming req see
system.mem_ctrls.rdQLenPdf::17                      0                       # What read queue length does an incoming req see
system.mem_ctrls.rdQLenPdf::18                      0                       # What read queue length does an incoming req see
system.mem_ctrls.rdQLenPdf::19                      0                       # What read queue length does an incoming req see
system.mem_ctrls.rdQLenPdf::20                      0                       # What read queue length does an incoming req see
system.mem_ctrls.rdQLenPdf::21                      0                       # What read queue length does an incoming req see
system.mem_ctrls.rdQLenPdf::22                      0                       # What read queue length does an incoming req see
system.mem_ctrls.rdQLenPdf::23                      0                       # What read queue length does an incoming req see
system.mem_ctrls.rdQLenPdf::24                      0                       # What read queue length does an incoming req see
system.mem_ctrls.rdQLenPdf::25                      0                       # What read queue length does an incoming req see
system.mem_ctrls.rdQLenPdf::26                      0                       # What read queue length does an incoming req see
system.mem_ctrls.rdQLenPdf::27                      0                       # What read queue length does an incoming req see
system.mem_ctrls.rdQLenPdf::28                      0                       # What read queue length does an incoming req see
system.mem_ctrls.rdQLenPdf::29                      0                       # What read queue length does an incoming req see
system.mem_ctrls.rdQLenPdf::30                      0                       # What read queue length does an incoming req see
system.mem_ctrls.rdQLenPdf::31                      0                       # What read queue length does an incoming req see
system.mem_ctrls.wrQLenPdf::0                       0                       # What write queue length does an incoming req see
system.mem_ctrls.wrQLenPdf::1                       0                       # What write queue length does an incoming req see
system.mem_ctrls.wrQLenPdf::2                       0                       # What write queue length does an incoming req see
system.mem_ctrls.wrQLenPdf::3                       0                       # What write queue length does an incoming req see
system.mem_ctrls.wrQLenPdf::4                       0                       # What write queue length does an incoming req see
system.mem_ctrls.wrQLenPdf::5                       0                       # What write queue length does an incoming req see
system.mem_ctrls.wrQLenPdf::6                       0                       # What write queue length does an incoming req see
system.mem_ctrls.wrQLenPdf::7                       0                       # What write queue length does an incoming req see
system.mem_ctrls.wrQLenPdf::8                       0                       # What write queue length does an incoming req see
system.mem_ctrls.wrQLenPdf::9                       0                       # What write queue length does an incoming req see
system.mem_ctrls.wrQLenPdf::10                      0                       # What write queue length does an incoming req see
system.mem_ctrls.wrQLenPdf::11                      0                       # What write queue length does an incoming req see
system.mem_ctrls.wrQLenPdf::12                      0                       # What write queue length does an incoming req see
system.mem_ctrls.wrQLenPdf::13                      0                       # What write queue length does an incoming req see
system.mem_ctrls.wrQLenPdf::14                      0                       # What write queue length does an incoming req see
system.mem_ctrls.wrQLenPdf::15                      0                       # What write queue length does an incoming req see
system.mem_ctrls.wrQLenPdf::16                      0                       # What write queue length does an incoming req see
system.mem_ctrls.wrQLenPdf::17                      0                       # What write queue length does an incoming req see
system.mem_ctrls.wrQLenPdf::18                      0                       # What write queue length does an incoming req see
system.mem_ctrls.wrQLenPdf::19                      0                       # What write queue length does an incoming req see
system.mem_ctrls.wrQLenPdf::20                      0                       # What write queue length does an incoming req see
system.mem_ctrls.wrQLenPdf::21                      0                       # What write queue length does an incoming req see
system.mem_ctrls.wrQLenPdf::22                      0                       # What write queue length does an incoming req see
system.mem_ctrls.wrQLenPdf::23                      0                       # What write queue length does an incoming req see
system.mem_ctrls.wrQLenPdf::24                      0                       # What write queue length does an incoming req see
system.mem_ctrls.wrQLenPdf::25                      0                       # What write queue length does an incoming req see
system.mem_ctrls.wrQLenPdf::26                      0                       # What write queue length does an incoming req see
system.mem_ctrls.wrQLenPdf::27                      0                       # What write queue length does an incoming req see
system.mem_ctrls.wrQLenPdf::28                      0                       # What write queue length does an incoming req see
system.mem_ctrls.wrQLenPdf::29                      0                       # What write queue length does an incoming req see
system.mem_ctrls.wrQLenPdf::30                      0                       # What write queue length does an incoming req see
system.mem_ctrls.wrQLenPdf::31                      0                       # What write queue length does an incoming req see
system.mem_ctrls.wrQLenPdf::32                      0                       # What write queue length does an incoming req see
system.mem_ctrls.wrQLenPdf::33                      0                       # What write queue length does an incoming req see
system.mem_ctrls.wrQLenPdf::34                      0                       # What write queue length does an incoming req see
system.mem_ctrls.wrQLenPdf::35                      0                       # What write queue length does an incoming req see
system.mem_ctrls.wrQLenPdf::36                      0                       # What write queue length does an incoming req see
system.mem_ctrls.wrQLenPdf::37                      0                       # What write queue length does an incoming req see
system.mem_ctrls.wrQLenPdf::38                      0                       # What write queue length does an incoming req see
system.mem_ctrls.wrQLenPdf::39                      0                       # What write queue length does an incoming req see
system.mem_ctrls.wrQLenPdf::40                      0                       # What write queue length does an incoming req see
system.mem_ctrls.wrQLenPdf::41                      0                       # What write queue length does an incoming req see
system.mem_ctrls.wrQLenPdf::42                      0                       # What write queue length does an incoming req see
system.mem_ctrls.wrQLenPdf::43                      0                       # What write queue length does an incoming req see
system.mem_ctrls.wrQLenPdf::44                      0                       # What write queue length does an incoming req see
system.mem_ctrls.wrQLenPdf::45                      0                       # What write queue length does an incoming req see
system.mem_ctrls.wrQLenPdf::46                      0                       # What write queue length does an incoming req see
system.mem_ctrls.wrQLenPdf::47                      0                       # What write queue length does an incoming req see
system.mem_ctrls.wrQLenPdf::48                      0                       # What write queue length does an incoming req see
system.mem_ctrls.wrQLenPdf::49                      0                       # What write queue length does an incoming req see
system.mem_ctrls.wrQLenPdf::50                      0                       # What write queue length does an incoming req see
system.mem_ctrls.wrQLenPdf::51                      0                       # What write queue length does an incoming req see
system.mem_ctrls.wrQLenPdf::52                      0                       # What write queue length does an incoming req see
system.mem_ctrls.wrQLenPdf::53                      0                       # What write queue length does an incoming req see
system.mem_ctrls.wrQLenPdf::54                      0                       # What write queue length does an incoming req see
system.mem_ctrls.wrQLenPdf::55                      0                       # What write queue length does an incoming req see
system.mem_ctrls.wrQLenPdf::56                      0                       # What write queue length does an incoming req see
system.mem_ctrls.wrQLenPdf::57                      0                       # What write queue length does an incoming req see
system.mem_ctrls.wrQLenPdf::58                      0                       # What write queue length does an incoming req see
system.mem_ctrls.wrQLenPdf::59                      0                       # What write queue length does an incoming req see
system.mem_ctrls.wrQLenPdf::60                      0                       # What write queue length does an incoming req see
system.mem_ctrls.wrQLenPdf::61                      0                       # What write queue length does an incoming req see
system.mem_ctrls.wrQLenPdf::62                      0                       # What write queue length does an incoming req see
system.mem_ctrls.wrQLenPdf::63                      0                       # What write queue length does an incoming req see
system.mem_ctrls.totQLat                            0                       # Total ticks spent queuing
system.mem_ctrls.totMemAccLat                       0                       # Total ticks spent from burst creation until serviced by the DRAM
system.mem_ctrls.totBusLat                          0                       # Total ticks spent in databus transfers
system.mem_ctrls.avgQLat                          nan                       # Average queueing delay per DRAM burst
system.mem_ctrls.avgBusLat                        nan                       # Average bus latency per DRAM burst
system.mem_ctrls.avgMemAccLat                     nan                       # Average memory access latency per DRAM burst
system.mem_ctrls.avgRdBW                         0.00                       # Average DRAM read bandwidth in MiByte/s
system.mem_ctrls.avgWrBW                         0.00                       # Average achieved write bandwidth in MiByte/s
system.mem_ctrls.avgRdBWSys                      0.00                       # Average system read bandwidth in MiByte/s
system.mem_ctrls.avgWrBWSys                      0.00                       # Average system write bandwidth in MiByte/s
system.mem_ctrls.peakBW                      12800.00                       # Theoretical peak bandwidth in MiByte/s
system.mem_ctrls.busUtil                         0.00                       # Data bus utilization in percentage
system.mem_ctrls.busUtilRead                     0.00                       # Data bus utilization in percentage for reads
system.mem_ctrls.busUtilWrite                    0.00                       # Data bus utilization in percentage for writes
system.mem_ctrls.avgRdQLen                       0.00                       # Average read queue length when enqueuing
system.mem_ctrls.avgWrQLen                       0.00                       # Average write queue length when enqueuing
system.mem_ctrls.readRowHits                        0                       # Number of row buffer hits during reads
system.mem_ctrls.writeRowHits                       0                       # Number of row buffer hits during writes
system.mem_ctrls.readRowHitRate                   nan                       # Row buffer hit rate for reads
system.mem_ctrls.writeRowHitRate                  nan                       # Row buffer hit rate for writes
system.mem_ctrls.avgGap                           nan                       # Average gap between requests
system.mem_ctrls.pageHitRate                      nan                       # Row buffer hit rate, read and write combined
system.mem_ctrls_0.actEnergy                        0                       # Energy for activate commands per rank (pJ)
system.mem_ctrls_0.preEnergy                        0                       # Energy for precharge commands per rank (pJ)
system.mem_ctrls_0.readEnergy                       0                       # Energy for read commands per rank (pJ)
system.mem_ctrls_0.writeEnergy                      0                       # Energy for write commands per rank (pJ)
system.mem_ctrls_0.refreshEnergy                    0                       # Energy for refresh commands per rank (pJ)
system.mem_ctrls_0.actBackEnergy                    0                       # Energy for active background per rank (pJ)
system.mem_ctrls_0.preBackEnergy         278361119040                       # Energy for precharge background per rank (pJ)
system.mem_ctrls_0.actPowerDownEnergy               0                       # Energy for active power-down per rank (pJ)
system.mem_ctrls_0.prePowerDownEnergy               0                       # Energy for precharge power-down per rank (pJ)
system.mem_ctrls_0.selfRefreshEnergy                0                       # Energy for self refresh per rank (pJ)
system.mem_ctrls_0.totalEnergy           278361119040                       # Total energy per rank (pJ)
system.mem_ctrls_0.averagePower            384.000000                       # Core power per rank (mW)
system.mem_ctrls_0.totalIdleTime                    0                       # Total Idle time Per DRAM Rank
system.mem_ctrls_0.memoryStateTime::IDLE 724898747000                       # Time in different power states
system.mem_ctrls_0.memoryStateTime::REF             0                       # Time in different power states
system.mem_ctrls_0.memoryStateTime::SREF            0                       # Time in different power states
system.mem_ctrls_0.memoryStateTime::PRE_PDN            0                       # Time in different power states
system.mem_ctrls_0.memoryStateTime::ACT             0                       # Time in different power states
system.mem_ctrls_0.memoryStateTime::ACT_PDN            0                       # Time in different power states
system.mem_ctrls_1.actEnergy                        0                       # Energy for activate commands per rank (pJ)
system.mem_ctrls_1.preEnergy                        0                       # Energy for precharge commands per rank (pJ)
system.mem_ctrls_1.readEnergy                       0                       # Energy for read commands per rank (pJ)
system.mem_ctrls_1.writeEnergy                      0                       # Energy for write commands per rank (pJ)
system.mem_ctrls_1.refreshEnergy                    0                       # Energy for refresh commands per rank (pJ)
system.mem_ctrls_1.actBackEnergy                    0                       # Energy for active background per rank (pJ)
system.mem_ctrls_1.preBackEnergy         278361119040                       # Energy for precharge background per rank (pJ)
system.mem_ctrls_1.actPowerDownEnergy               0                       # Energy for active power-down per rank (pJ)
system.mem_ctrls_1.prePowerDownEnergy               0                       # Energy for precharge power-down per rank (pJ)
system.mem_ctrls_1.selfRefreshEnergy                0                       # Energy for self refresh per rank (pJ)
system.mem_ctrls_1.totalEnergy           278361119040                       # Total energy per rank (pJ)
system.mem_ctrls_1.averagePower            384.000000                       # Core power per rank (mW)
system.mem_ctrls_1.totalIdleTime                    0                       # Total Idle time Per DRAM Rank
system.mem_ctrls_1.memoryStateTime::IDLE 724898747000                       # Time in different power states
system.mem_ctrls_1.memoryStateTime::REF             0                       # Time in different power states
system.mem_ctrls_1.memoryStateTime::SREF            0                       # Time in different power states
system.mem_ctrls_1.memoryStateTime::PRE_PDN            0                       # Time in different power states
system.mem_ctrls_1.memoryStateTime::ACT             0                       # Time in different power states
system.mem_ctrls_1.memoryStateTime::ACT_PDN            0                       # Time in different power states
system.pwrStateResidencyTicks::UNDEFINED 724898747000                       # Cumulative time (in ticks) in various power states
system.cpu_voltage_domain.voltage                   1                       # Voltage in Volts
system.cpu_clk_domain.clock                       500                       # Clock period in ticks
system.cpu0.dtb.walker.pwrStateResidencyTicks::UNDEFINED 724898747000                       # Cumulative time (in ticks) in various power states
system.cpu0.dtb.rdAccesses                  139725156                       # TLB accesses on read requests
system.cpu0.dtb.wrAccesses                   62783581                       # TLB accesses on write requests
system.cpu0.dtb.rdMisses                         4162                       # TLB misses on read requests
system.cpu0.dtb.wrMisses                         4063                       # TLB misses on write requests
system.cpu0.apic_clk_domain.clock                8000                       # Clock period in ticks
system.cpu0.interrupts.pwrStateResidencyTicks::UNDEFINED 724898747000                       # Cumulative time (in ticks) in various power states
system.cpu0.itb.walker.pwrStateResidencyTicks::UNDEFINED 724898747000                       # Cumulative time (in ticks) in various power states
system.cpu0.itb.rdAccesses                          0                       # TLB accesses on read requests
system.cpu0.itb.wrAccesses                  406408126                       # TLB accesses on write requests
system.cpu0.itb.rdMisses                            0                       # TLB misses on read requests
system.cpu0.itb.wrMisses                         1179                       # TLB misses on write requests
system.cpu0.workload.numSyscalls                  497                       # Number of system calls
system.cpu0.numPwrStateTransitions                 50                       # Number of power state transitions
system.cpu0.pwrStateClkGateDist::samples           25                       # Distribution of time spent in the clock gated state
system.cpu0.pwrStateClkGateDist::mean     15974072340                       # Distribution of time spent in the clock gated state
system.cpu0.pwrStateClkGateDist::stdev   17792818261.945000                       # Distribution of time spent in the clock gated state
system.cpu0.pwrStateClkGateDist::1000-5e+10           24     96.00%     96.00% # Distribution of time spent in the clock gated state
system.cpu0.pwrStateClkGateDist::5e+10-1e+11            1      4.00%    100.00% # Distribution of time spent in the clock gated state
system.cpu0.pwrStateClkGateDist::min_value       781500                       # Distribution of time spent in the clock gated state
system.cpu0.pwrStateClkGateDist::max_value  92680943000                       # Distribution of time spent in the clock gated state
system.cpu0.pwrStateClkGateDist::total             25                       # Distribution of time spent in the clock gated state
system.cpu0.pwrStateResidencyTicks::ON   325546938500                       # Cumulative time (in ticks) in various power states
system.cpu0.pwrStateResidencyTicks::CLK_GATED 399351808500                       # Cumulative time (in ticks) in various power states
system.cpu0.numCycles                      1449822706                       # number of cpu cycles simulated
system.cpu0.numWorkItemsStarted                     0                       # number of work items this cpu started
system.cpu0.numWorkItemsCompleted                   0                       # number of work items this cpu completed
system.cpu0.committedInsts                  319228456                       # Number of instructions committed
system.cpu0.committedOps                    563939419                       # Number of ops (including micro ops) committed
system.cpu0.num_int_alu_accesses            503494099                       # Number of integer alu accesses
system.cpu0.num_fp_alu_accesses              98266219                       # Number of float alu accesses
system.cpu0.num_vec_alu_accesses                    0                       # Number of vector alu accesses
system.cpu0.num_func_calls                    6057670                       # number of times a function call or return occured
system.cpu0.num_conditional_control_insts     16642241                       # number of instructions that are conditional controls
system.cpu0.num_int_insts                   503494099                       # number of integer instructions
system.cpu0.num_fp_insts                     98266219                       # number of float instructions
system.cpu0.num_vec_insts                           0                       # number of vector instructions
system.cpu0.num_int_register_reads         1149955625                       # number of times the integer registers were read
system.cpu0.num_int_register_writes         382905441                       # number of times the integer registers were written
system.cpu0.num_fp_register_reads            96117500                       # number of times the floating registers were read
system.cpu0.num_fp_register_writes           85648325                       # number of times the floating registers were written
system.cpu0.num_vec_register_reads                  0                       # number of times the vector registers were read
system.cpu0.num_vec_register_writes                 0                       # number of times the vector registers were written
system.cpu0.num_cc_register_reads           116533074                       # number of times the CC registers were read
system.cpu0.num_cc_register_writes          127117434                       # number of times the CC registers were written
system.cpu0.num_mem_refs                    202466321                       # number of memory refs
system.cpu0.num_load_insts                  139684140                       # Number of load instructions
system.cpu0.num_store_insts                  62782181                       # Number of store instructions
system.cpu0.num_idle_cycles              798717506.466686                       # Number of idle cycles
system.cpu0.num_busy_cycles              651105199.533314                       # Number of busy cycles
system.cpu0.not_idle_fraction                0.449093                       # Percentage of non-idle cycles
system.cpu0.idle_fraction                    0.550907                       # Percentage of idle cycles
system.cpu0.Branches                         36082419                       # Number of branches fetched
system.cpu0.op_class::No_OpClass               296914      0.05%      0.05% # Class of executed instruction
system.cpu0.op_class::IntAlu                287684405     51.01%     51.07% # Class of executed instruction
system.cpu0.op_class::IntMult                 3781946      0.67%     51.74% # Class of executed instruction
system.cpu0.op_class::IntDiv                    49506      0.01%     51.75% # Class of executed instruction
system.cpu0.op_class::FloatAdd               29615313      5.25%     57.00% # Class of executed instruction
system.cpu0.op_class::FloatCmp                      0      0.00%     57.00% # Class of executed instruction
system.cpu0.op_class::FloatCvt                   2816      0.00%     57.00% # Class of executed instruction
system.cpu0.op_class::FloatMult                     0      0.00%     57.00% # Class of executed instruction
system.cpu0.op_class::FloatMultAcc                  0      0.00%     57.00% # Class of executed instruction
system.cpu0.op_class::FloatDiv                      0      0.00%     57.00% # Class of executed instruction
system.cpu0.op_class::FloatMisc                     0      0.00%     57.00% # Class of executed instruction
system.cpu0.op_class::FloatSqrt                     0      0.00%     57.00% # Class of executed instruction
system.cpu0.op_class::SimdAdd                   10190      0.00%     57.00% # Class of executed instruction
system.cpu0.op_class::SimdAddAcc                    0      0.00%     57.00% # Class of executed instruction
system.cpu0.op_class::SimdAlu                 4994265      0.89%     57.88% # Class of executed instruction
system.cpu0.op_class::SimdCmp                      24      0.00%     57.88% # Class of executed instruction
system.cpu0.op_class::SimdCvt                   21832      0.00%     57.89% # Class of executed instruction
system.cpu0.op_class::SimdMisc                9887804      1.75%     59.64% # Class of executed instruction
system.cpu0.op_class::SimdMult                      0      0.00%     59.64% # Class of executed instruction
system.cpu0.op_class::SimdMultAcc                   0      0.00%     59.64% # Class of executed instruction
system.cpu0.op_class::SimdShift                  2942      0.00%     59.64% # Class of executed instruction
system.cpu0.op_class::SimdShiftAcc                  0      0.00%     59.64% # Class of executed instruction
system.cpu0.op_class::SimdSqrt                      0      0.00%     59.64% # Class of executed instruction
system.cpu0.op_class::SimdFloatAdd            7631467      1.35%     61.00% # Class of executed instruction
system.cpu0.op_class::SimdFloatAlu                  0      0.00%     61.00% # Class of executed instruction
system.cpu0.op_class::SimdFloatCmp                  0      0.00%     61.00% # Class of executed instruction
system.cpu0.op_class::SimdFloatCvt            9909432      1.76%     62.75% # Class of executed instruction
system.cpu0.op_class::SimdFloatDiv               2273      0.00%     62.75% # Class of executed instruction
system.cpu0.op_class::SimdFloatMisc                 0      0.00%     62.75% # Class of executed instruction
system.cpu0.op_class::SimdFloatMult           7580329      1.34%     64.10% # Class of executed instruction
system.cpu0.op_class::SimdFloatMultAcc              0      0.00%     64.10% # Class of executed instruction
system.cpu0.op_class::SimdFloatSqrt              1640      0.00%     64.10% # Class of executed instruction
system.cpu0.op_class::SimdAes                       0      0.00%     64.10% # Class of executed instruction
system.cpu0.op_class::SimdAesMix                    0      0.00%     64.10% # Class of executed instruction
system.cpu0.op_class::SimdSha1Hash                  0      0.00%     64.10% # Class of executed instruction
system.cpu0.op_class::SimdSha1Hash2                 0      0.00%     64.10% # Class of executed instruction
system.cpu0.op_class::SimdSha256Hash                0      0.00%     64.10% # Class of executed instruction
system.cpu0.op_class::SimdSha256Hash2               0      0.00%     64.10% # Class of executed instruction
system.cpu0.op_class::SimdShaSigma2                 0      0.00%     64.10% # Class of executed instruction
system.cpu0.op_class::SimdShaSigma3                 0      0.00%     64.10% # Class of executed instruction
system.cpu0.op_class::MemRead               121419382     21.53%     85.63% # Class of executed instruction
system.cpu0.op_class::MemWrite               52770212      9.36%     94.99% # Class of executed instruction
system.cpu0.op_class::FloatMemRead           18264758      3.24%     98.22% # Class of executed instruction
system.cpu0.op_class::FloatMemWrite          10011969      1.78%    100.00% # Class of executed instruction
system.cpu0.op_class::IprAccess                     0      0.00%    100.00% # Class of executed instruction
system.cpu0.op_class::InstPrefetch                  0      0.00%    100.00% # Class of executed instruction
system.cpu0.op_class::total                 563939419                       # Class of executed instruction
system.cpu0.dcache.tags.pwrStateResidencyTicks::UNDEFINED 724898747000                       # Cumulative time (in ticks) in various power states
system.cpu0.dcache.tags.tagsinuse          488.071930                       # Cycle average of tags in use
system.cpu0.dcache.tags.total_refs          202508737                       # Total number of references to valid blocks.
system.cpu0.dcache.tags.sampled_refs           297485                       # Sample count of references to valid blocks.
system.cpu0.dcache.tags.avg_refs           680.735960                       # Average number of references to valid blocks.
system.cpu0.dcache.tags.warmup_cycle             1500                       # Cycle when the warmup percentage was hit.
system.cpu0.dcache.tags.occ_blocks::.cpu0.data   488.071930                       # Average occupied blocks per requestor
system.cpu0.dcache.tags.occ_percent::.cpu0.data     0.953265                       # Average percentage of cache occupancy
system.cpu0.dcache.tags.occ_percent::total     0.953265                       # Average percentage of cache occupancy
system.cpu0.dcache.tags.occ_task_id_blocks::1024          512                       # Occupied blocks per task id
system.cpu0.dcache.tags.age_task_id_blocks_1024::0          180                       # Occupied blocks per task id
system.cpu0.dcache.tags.age_task_id_blocks_1024::1          173                       # Occupied blocks per task id
system.cpu0.dcache.tags.age_task_id_blocks_1024::2          159                       # Occupied blocks per task id
system.cpu0.dcache.tags.occ_task_id_percent::1024            1                       # Percentage of cache occupancy per task id
system.cpu0.dcache.tags.tag_accesses        405314959                       # Number of tag accesses
system.cpu0.dcache.tags.data_accesses       405314959                       # Number of data accesses
system.cpu0.dcache.pwrStateResidencyTicks::UNDEFINED 724898747000                       # Cumulative time (in ticks) in various power states
system.cpu0.dcache.ReadReq_hits::.cpu0.data    139459959                       # number of ReadReq hits
system.cpu0.dcache.ReadReq_hits::total      139459959                       # number of ReadReq hits
system.cpu0.dcache.WriteReq_hits::.cpu0.data     62633084                       # number of WriteReq hits
system.cpu0.dcache.WriteReq_hits::total      62633084                       # number of WriteReq hits
system.cpu0.dcache.SoftPFReq_hits::.cpu0.data       117932                       # number of SoftPFReq hits
system.cpu0.dcache.SoftPFReq_hits::total       117932                       # number of SoftPFReq hits
system.cpu0.dcache.demand_hits::.cpu0.data    202093043                       # number of demand (read+write) hits
system.cpu0.dcache.demand_hits::total       202093043                       # number of demand (read+write) hits
system.cpu0.dcache.overall_hits::.cpu0.data    202210975                       # number of overall hits
system.cpu0.dcache.overall_hits::total      202210975                       # number of overall hits
system.cpu0.dcache.ReadReq_misses::.cpu0.data       134335                       # number of ReadReq misses
system.cpu0.dcache.ReadReq_misses::total       134335                       # number of ReadReq misses
system.cpu0.dcache.WriteReq_misses::.cpu0.data       150497                       # number of WriteReq misses
system.cpu0.dcache.WriteReq_misses::total       150497                       # number of WriteReq misses
system.cpu0.dcache.SoftPFReq_misses::.cpu0.data        12930                       # number of SoftPFReq misses
system.cpu0.dcache.SoftPFReq_misses::total        12930                       # number of SoftPFReq misses
system.cpu0.dcache.demand_misses::.cpu0.data       284832                       # number of demand (read+write) misses
system.cpu0.dcache.demand_misses::total        284832                       # number of demand (read+write) misses
system.cpu0.dcache.overall_misses::.cpu0.data       297762                       # number of overall misses
system.cpu0.dcache.overall_misses::total       297762                       # number of overall misses
system.cpu0.dcache.ReadReq_accesses::.cpu0.data    139594294                       # number of ReadReq accesses(hits+misses)
system.cpu0.dcache.ReadReq_accesses::total    139594294                       # number of ReadReq accesses(hits+misses)
system.cpu0.dcache.WriteReq_accesses::.cpu0.data     62783581                       # number of WriteReq accesses(hits+misses)
system.cpu0.dcache.WriteReq_accesses::total     62783581                       # number of WriteReq accesses(hits+misses)
system.cpu0.dcache.SoftPFReq_accesses::.cpu0.data       130862                       # number of SoftPFReq accesses(hits+misses)
system.cpu0.dcache.SoftPFReq_accesses::total       130862                       # number of SoftPFReq accesses(hits+misses)
system.cpu0.dcache.demand_accesses::.cpu0.data    202377875                       # number of demand (read+write) accesses
system.cpu0.dcache.demand_accesses::total    202377875                       # number of demand (read+write) accesses
system.cpu0.dcache.overall_accesses::.cpu0.data    202508737                       # number of overall (read+write) accesses
system.cpu0.dcache.overall_accesses::total    202508737                       # number of overall (read+write) accesses
system.cpu0.dcache.ReadReq_miss_rate::.cpu0.data     0.000962                       # miss rate for ReadReq accesses
system.cpu0.dcache.ReadReq_miss_rate::total     0.000962                       # miss rate for ReadReq accesses
system.cpu0.dcache.WriteReq_miss_rate::.cpu0.data     0.002397                       # miss rate for WriteReq accesses
system.cpu0.dcache.WriteReq_miss_rate::total     0.002397                       # miss rate for WriteReq accesses
system.cpu0.dcache.SoftPFReq_miss_rate::.cpu0.data     0.098806                       # miss rate for SoftPFReq accesses
system.cpu0.dcache.SoftPFReq_miss_rate::total     0.098806                       # miss rate for SoftPFReq accesses
system.cpu0.dcache.demand_miss_rate::.cpu0.data     0.001407                       # miss rate for demand accesses
system.cpu0.dcache.demand_miss_rate::total     0.001407                       # miss rate for demand accesses
system.cpu0.dcache.overall_miss_rate::.cpu0.data     0.001470                       # miss rate for overall accesses
system.cpu0.dcache.overall_miss_rate::total     0.001470                       # miss rate for overall accesses
system.cpu0.dcache.blocked_cycles::no_mshrs            0                       # number of cycles access was blocked
system.cpu0.dcache.blocked_cycles::no_targets            0                       # number of cycles access was blocked
system.cpu0.dcache.blocked::no_mshrs                0                       # number of cycles access was blocked
system.cpu0.dcache.blocked::no_targets              0                       # number of cycles access was blocked
system.cpu0.dcache.avg_blocked_cycles::no_mshrs          nan                       # average number of cycles each access was blocked
system.cpu0.dcache.avg_blocked_cycles::no_targets          nan                       # average number of cycles each access was blocked
system.cpu0.dcache.writebacks::.writebacks       276159                       # number of writebacks
system.cpu0.dcache.writebacks::total           276159                       # number of writebacks
system.cpu0.dcache.replacements                295116                       # number of replacements
system.cpu0.dtb_walker_cache.tags.pwrStateResidencyTicks::UNDEFINED 724898747000                       # Cumulative time (in ticks) in various power states
system.cpu0.dtb_walker_cache.tags.tagsinuse            0                       # Cycle average of tags in use
system.cpu0.dtb_walker_cache.tags.total_refs            0                       # Total number of references to valid blocks.
system.cpu0.dtb_walker_cache.tags.sampled_refs            0                       # Sample count of references to valid blocks.
system.cpu0.dtb_walker_cache.tags.avg_refs          nan                       # Average number of references to valid blocks.
system.cpu0.dtb_walker_cache.tags.warmup_cycle            0                       # Cycle when the warmup percentage was hit.
system.cpu0.dtb_walker_cache.tags.tag_accesses            0                       # Number of tag accesses
system.cpu0.dtb_walker_cache.tags.data_accesses            0                       # Number of data accesses
system.cpu0.dtb_walker_cache.pwrStateResidencyTicks::UNDEFINED 724898747000                       # Cumulative time (in ticks) in various power states
system.cpu0.dtb_walker_cache.blocked_cycles::no_mshrs            0                       # number of cycles access was blocked
system.cpu0.dtb_walker_cache.blocked_cycles::no_targets            0                       # number of cycles access was blocked
system.cpu0.dtb_walker_cache.blocked::no_mshrs            0                       # number of cycles access was blocked
system.cpu0.dtb_walker_cache.blocked::no_targets            0                       # number of cycles access was blocked
system.cpu0.dtb_walker_cache.avg_blocked_cycles::no_mshrs          nan                       # average number of cycles each access was blocked
system.cpu0.dtb_walker_cache.avg_blocked_cycles::no_targets          nan                       # average number of cycles each access was blocked
system.cpu0.dtb_walker_cache.replacements            0                       # number of replacements
system.cpu0.icache.tags.pwrStateResidencyTicks::UNDEFINED 724898747000                       # Cumulative time (in ticks) in various power states
system.cpu0.icache.tags.tagsinuse          511.780378                       # Cycle average of tags in use
system.cpu0.icache.tags.total_refs          406408126                       # Total number of references to valid blocks.
system.cpu0.icache.tags.sampled_refs            23496                       # Sample count of references to valid blocks.
system.cpu0.icache.tags.avg_refs         17296.906963                       # Average number of references to valid blocks.
system.cpu0.icache.tags.warmup_cycle                0                       # Cycle when the warmup percentage was hit.
system.cpu0.icache.tags.occ_blocks::.cpu0.inst   511.780378                       # Average occupied blocks per requestor
system.cpu0.icache.tags.occ_percent::.cpu0.inst     0.999571                       # Average percentage of cache occupancy
system.cpu0.icache.tags.occ_percent::total     0.999571                       # Average percentage of cache occupancy
system.cpu0.icache.tags.occ_task_id_blocks::1024          512                       # Occupied blocks per task id
system.cpu0.icache.tags.age_task_id_blocks_1024::0          192                       # Occupied blocks per task id
system.cpu0.icache.tags.age_task_id_blocks_1024::1          152                       # Occupied blocks per task id
system.cpu0.icache.tags.age_task_id_blocks_1024::2          142                       # Occupied blocks per task id
system.cpu0.icache.tags.age_task_id_blocks_1024::4           26                       # Occupied blocks per task id
system.cpu0.icache.tags.occ_task_id_percent::1024            1                       # Percentage of cache occupancy per task id
system.cpu0.icache.tags.tag_accesses        812839748                       # Number of tag accesses
system.cpu0.icache.tags.data_accesses       812839748                       # Number of data accesses
system.cpu0.icache.pwrStateResidencyTicks::UNDEFINED 724898747000                       # Cumulative time (in ticks) in various power states
system.cpu0.icache.ReadReq_hits::.cpu0.inst    406384630                       # number of ReadReq hits
system.cpu0.icache.ReadReq_hits::total      406384630                       # number of ReadReq hits
system.cpu0.icache.demand_hits::.cpu0.inst    406384630                       # number of demand (read+write) hits
system.cpu0.icache.demand_hits::total       406384630                       # number of demand (read+write) hits
system.cpu0.icache.overall_hits::.cpu0.inst    406384630                       # number of overall hits
system.cpu0.icache.overall_hits::total      406384630                       # number of overall hits
system.cpu0.icache.ReadReq_misses::.cpu0.inst        23496                       # number of ReadReq misses
system.cpu0.icache.ReadReq_misses::total        23496                       # number of ReadReq misses
system.cpu0.icache.demand_misses::.cpu0.inst        23496                       # number of demand (read+write) misses
system.cpu0.icache.demand_misses::total         23496                       # number of demand (read+write) misses
system.cpu0.icache.overall_misses::.cpu0.inst        23496                       # number of overall misses
system.cpu0.icache.overall_misses::total        23496                       # number of overall misses
system.cpu0.icache.ReadReq_accesses::.cpu0.inst    406408126                       # number of ReadReq accesses(hits+misses)
system.cpu0.icache.ReadReq_accesses::total    406408126                       # number of ReadReq accesses(hits+misses)
system.cpu0.icache.demand_accesses::.cpu0.inst    406408126                       # number of demand (read+write) accesses
system.cpu0.icache.demand_accesses::total    406408126                       # number of demand (read+write) accesses
system.cpu0.icache.overall_accesses::.cpu0.inst    406408126                       # number of overall (read+write) accesses
system.cpu0.icache.overall_accesses::total    406408126                       # number of overall (read+write) accesses
system.cpu0.icache.ReadReq_miss_rate::.cpu0.inst     0.000058                       # miss rate for ReadReq accesses
system.cpu0.icache.ReadReq_miss_rate::total     0.000058                       # miss rate for ReadReq accesses
system.cpu0.icache.demand_miss_rate::.cpu0.inst     0.000058                       # miss rate for demand accesses
system.cpu0.icache.demand_miss_rate::total     0.000058                       # miss rate for demand accesses
system.cpu0.icache.overall_miss_rate::.cpu0.inst     0.000058                       # miss rate for overall accesses
system.cpu0.icache.overall_miss_rate::total     0.000058                       # miss rate for overall accesses
system.cpu0.icache.blocked_cycles::no_mshrs            0                       # number of cycles access was blocked
system.cpu0.icache.blocked_cycles::no_targets            0                       # number of cycles access was blocked
system.cpu0.icache.blocked::no_mshrs                0                       # number of cycles access was blocked
system.cpu0.icache.blocked::no_targets              0                       # number of cycles access was blocked
system.cpu0.icache.avg_blocked_cycles::no_mshrs          nan                       # average number of cycles each access was blocked
system.cpu0.icache.avg_blocked_cycles::no_targets          nan                       # average number of cycles each access was blocked
system.cpu0.icache.writebacks::.writebacks        22984                       # number of writebacks
system.cpu0.icache.writebacks::total            22984                       # number of writebacks
system.cpu0.icache.replacements                 22984                       # number of replacements
system.cpu0.itb_walker_cache.tags.pwrStateResidencyTicks::UNDEFINED 724898747000                       # Cumulative time (in ticks) in various power states
system.cpu0.itb_walker_cache.tags.tagsinuse            0                       # Cycle average of tags in use
system.cpu0.itb_walker_cache.tags.total_refs            0                       # Total number of references to valid blocks.
system.cpu0.itb_walker_cache.tags.sampled_refs            0                       # Sample count of references to valid blocks.
system.cpu0.itb_walker_cache.tags.avg_refs          nan                       # Average number of references to valid blocks.
system.cpu0.itb_walker_cache.tags.warmup_cycle            0                       # Cycle when the warmup percentage was hit.
system.cpu0.itb_walker_cache.tags.tag_accesses            0                       # Number of tag accesses
system.cpu0.itb_walker_cache.tags.data_accesses            0                       # Number of data accesses
system.cpu0.itb_walker_cache.pwrStateResidencyTicks::UNDEFINED 724898747000                       # Cumulative time (in ticks) in various power states
system.cpu0.itb_walker_cache.blocked_cycles::no_mshrs            0                       # number of cycles access was blocked
system.cpu0.itb_walker_cache.blocked_cycles::no_targets            0                       # number of cycles access was blocked
system.cpu0.itb_walker_cache.blocked::no_mshrs            0                       # number of cycles access was blocked
system.cpu0.itb_walker_cache.blocked::no_targets            0                       # number of cycles access was blocked
system.cpu0.itb_walker_cache.avg_blocked_cycles::no_mshrs          nan                       # average number of cycles each access was blocked
system.cpu0.itb_walker_cache.avg_blocked_cycles::no_targets          nan                       # average number of cycles each access was blocked
system.cpu0.itb_walker_cache.replacements            0                       # number of replacements
system.cpu1.dtb.walker.pwrStateResidencyTicks::UNDEFINED 724898747000                       # Cumulative time (in ticks) in various power states
system.cpu1.dtb.rdAccesses                  116228880                       # TLB accesses on read requests
system.cpu1.dtb.wrAccesses                   49977818                       # TLB accesses on write requests
system.cpu1.dtb.rdMisses                        26674                       # TLB misses on read requests
system.cpu1.dtb.wrMisses                         1343                       # TLB misses on write requests
system.cpu1.apic_clk_domain.clock                8000                       # Clock period in ticks
system.cpu1.interrupts.pwrStateResidencyTicks::UNDEFINED 724898747000                       # Cumulative time (in ticks) in various power states
system.cpu1.itb.walker.pwrStateResidencyTicks::UNDEFINED 724898747000                       # Cumulative time (in ticks) in various power states
system.cpu1.itb.rdAccesses                          0                       # TLB accesses on read requests
system.cpu1.itb.wrAccesses                  373514814                       # TLB accesses on write requests
system.cpu1.itb.rdMisses                            0                       # TLB misses on read requests
system.cpu1.itb.wrMisses                           83                       # TLB misses on write requests
system.cpu1.numPwrStateTransitions                270                       # Number of power state transitions
system.cpu1.pwrStateClkGateDist::samples          135                       # Distribution of time spent in the clock gated state
system.cpu1.pwrStateClkGateDist::mean    3193963218.518518                       # Distribution of time spent in the clock gated state
system.cpu1.pwrStateClkGateDist::stdev   28435662535.124172                       # Distribution of time spent in the clock gated state
system.cpu1.pwrStateClkGateDist::1000-5e+10          133     98.52%     98.52% # Distribution of time spent in the clock gated state
system.cpu1.pwrStateClkGateDist::5e+10-1e+11            1      0.74%     99.26% # Distribution of time spent in the clock gated state
system.cpu1.pwrStateClkGateDist::3e+11-3.5e+11            1      0.74%    100.00% # Distribution of time spent in the clock gated state
system.cpu1.pwrStateClkGateDist::min_value         3500                       # Distribution of time spent in the clock gated state
system.cpu1.pwrStateClkGateDist::max_value 317628411000                       # Distribution of time spent in the clock gated state
system.cpu1.pwrStateClkGateDist::total            135                       # Distribution of time spent in the clock gated state
system.cpu1.pwrStateResidencyTicks::ON   293713712500                       # Cumulative time (in ticks) in various power states
system.cpu1.pwrStateResidencyTicks::CLK_GATED 431185034500                       # Cumulative time (in ticks) in various power states
system.cpu1.numCycles                      1449375495                       # number of cpu cycles simulated
system.cpu1.numWorkItemsStarted                     0                       # number of work items this cpu started
system.cpu1.numWorkItemsCompleted                   0                       # number of work items this cpu completed
system.cpu1.committedInsts                  280911001                       # Number of instructions committed
system.cpu1.committedOps                    489489954                       # Number of ops (including micro ops) committed
system.cpu1.num_int_alu_accesses            405803100                       # Number of integer alu accesses
system.cpu1.num_fp_alu_accesses             128855925                       # Number of float alu accesses
system.cpu1.num_vec_alu_accesses                    0                       # Number of vector alu accesses
system.cpu1.num_func_calls                   10874519                       # number of times a function call or return occured
system.cpu1.num_conditional_control_insts      8582377                       # number of instructions that are conditional controls
system.cpu1.num_int_insts                   405803100                       # number of integer instructions
system.cpu1.num_fp_insts                    128855925                       # number of float instructions
system.cpu1.num_vec_insts                           0                       # number of vector instructions
system.cpu1.num_int_register_reads          923378014                       # number of times the integer registers were read
system.cpu1.num_int_register_writes         298311254                       # number of times the integer registers were written
system.cpu1.num_fp_register_reads           120273513                       # number of times the floating registers were read
system.cpu1.num_fp_register_writes          116315449                       # number of times the floating registers were written
system.cpu1.num_vec_register_reads                  0                       # number of times the vector registers were read
system.cpu1.num_vec_register_writes                 0                       # number of times the vector registers were written
system.cpu1.num_cc_register_reads            59303744                       # number of times the CC registers were read
system.cpu1.num_cc_register_writes           83428516                       # number of times the CC registers were written
system.cpu1.num_mem_refs                    165614779                       # number of memory refs
system.cpu1.num_load_insts                  115643753                       # Number of load instructions
system.cpu1.num_store_insts                  49971026                       # Number of store instructions
system.cpu1.num_idle_cycles              867454094.766294                       # Number of idle cycles
system.cpu1.num_busy_cycles              581921400.233706                       # Number of busy cycles
system.cpu1.not_idle_fraction                0.401498                       # Percentage of non-idle cycles
system.cpu1.idle_fraction                    0.598502                       # Percentage of idle cycles
system.cpu1.Branches                         25784216                       # Number of branches fetched
system.cpu1.op_class::No_OpClass               138712      0.03%      0.03% # Class of executed instruction
system.cpu1.op_class::IntAlu                235107759     48.03%     48.06% # Class of executed instruction
system.cpu1.op_class::IntMult                 2665466      0.54%     48.60% # Class of executed instruction
system.cpu1.op_class::IntDiv                     2646      0.00%     48.60% # Class of executed instruction
system.cpu1.op_class::FloatAdd               43262771      8.84%     57.44% # Class of executed instruction
system.cpu1.op_class::FloatCmp                      0      0.00%     57.44% # Class of executed instruction
system.cpu1.op_class::FloatCvt                     32      0.00%     57.44% # Class of executed instruction
system.cpu1.op_class::FloatMult                     0      0.00%     57.44% # Class of executed instruction
system.cpu1.op_class::FloatMultAcc                  0      0.00%     57.44% # Class of executed instruction
system.cpu1.op_class::FloatDiv                      0      0.00%     57.44% # Class of executed instruction
system.cpu1.op_class::FloatMisc                     0      0.00%     57.44% # Class of executed instruction
system.cpu1.op_class::FloatSqrt                     0      0.00%     57.44% # Class of executed instruction
system.cpu1.op_class::SimdAdd                     426      0.00%     57.44% # Class of executed instruction
system.cpu1.op_class::SimdAddAcc                    0      0.00%     57.44% # Class of executed instruction
system.cpu1.op_class::SimdAlu                 1664581      0.34%     57.78% # Class of executed instruction
system.cpu1.op_class::SimdCmp                       0      0.00%     57.78% # Class of executed instruction
system.cpu1.op_class::SimdCvt                     168      0.00%     57.78% # Class of executed instruction
system.cpu1.op_class::SimdMisc                9248641      1.89%     59.67% # Class of executed instruction
system.cpu1.op_class::SimdMult                      0      0.00%     59.67% # Class of executed instruction
system.cpu1.op_class::SimdMultAcc                   0      0.00%     59.67% # Class of executed instruction
system.cpu1.op_class::SimdShift                   198      0.00%     59.67% # Class of executed instruction
system.cpu1.op_class::SimdShiftAcc                  0      0.00%     59.67% # Class of executed instruction
system.cpu1.op_class::SimdSqrt                      0      0.00%     59.67% # Class of executed instruction
system.cpu1.op_class::SimdFloatAdd           10909918      2.23%     61.90% # Class of executed instruction
system.cpu1.op_class::SimdFloatAlu                  0      0.00%     61.90% # Class of executed instruction
system.cpu1.op_class::SimdFloatCmp                  0      0.00%     61.90% # Class of executed instruction
system.cpu1.op_class::SimdFloatCvt            9600734      1.96%     63.86% # Class of executed instruction
system.cpu1.op_class::SimdFloatDiv             138396      0.03%     63.89% # Class of executed instruction
system.cpu1.op_class::SimdFloatMisc                 0      0.00%     63.89% # Class of executed instruction
system.cpu1.op_class::SimdFloatMult          11101819      2.27%     66.16% # Class of executed instruction
system.cpu1.op_class::SimdFloatMultAcc              0      0.00%     66.16% # Class of executed instruction
system.cpu1.op_class::SimdFloatSqrt             32908      0.01%     66.17% # Class of executed instruction
system.cpu1.op_class::SimdAes                       0      0.00%     66.17% # Class of executed instruction
system.cpu1.op_class::SimdAesMix                    0      0.00%     66.17% # Class of executed instruction
system.cpu1.op_class::SimdSha1Hash                  0      0.00%     66.17% # Class of executed instruction
system.cpu1.op_class::SimdSha1Hash2                 0      0.00%     66.17% # Class of executed instruction
system.cpu1.op_class::SimdSha256Hash                0      0.00%     66.17% # Class of executed instruction
system.cpu1.op_class::SimdSha256Hash2               0      0.00%     66.17% # Class of executed instruction
system.cpu1.op_class::SimdShaSigma2                 0      0.00%     66.17% # Class of executed instruction
system.cpu1.op_class::SimdShaSigma3                 0      0.00%     66.17% # Class of executed instruction
system.cpu1.op_class::MemRead                89132256     18.21%     84.38% # Class of executed instruction
system.cpu1.op_class::MemWrite               39096055      7.99%     92.36% # Class of executed instruction
system.cpu1.op_class::FloatMemRead           26511497      5.42%     97.78% # Class of executed instruction
system.cpu1.op_class::FloatMemWrite          10874971      2.22%    100.00% # Class of executed instruction
system.cpu1.op_class::IprAccess                     0      0.00%    100.00% # Class of executed instruction
system.cpu1.op_class::InstPrefetch                  0      0.00%    100.00% # Class of executed instruction
system.cpu1.op_class::total                 489489954                       # Class of executed instruction
system.cpu1.dcache.tags.pwrStateResidencyTicks::UNDEFINED 724898747000                       # Cumulative time (in ticks) in various power states
system.cpu1.dcache.tags.tagsinuse          448.505143                       # Cycle average of tags in use
system.cpu1.dcache.tags.total_refs          166206698                       # Total number of references to valid blocks.
system.cpu1.dcache.tags.sampled_refs           264207                       # Sample count of references to valid blocks.
system.cpu1.dcache.tags.avg_refs           629.077572                       # Average number of references to valid blocks.
system.cpu1.dcache.tags.warmup_cycle       2455833500                       # Cycle when the warmup percentage was hit.
system.cpu1.dcache.tags.occ_blocks::.cpu1.data   448.505143                       # Average occupied blocks per requestor
system.cpu1.dcache.tags.occ_percent::.cpu1.data     0.875987                       # Average percentage of cache occupancy
system.cpu1.dcache.tags.occ_percent::total     0.875987                       # Average percentage of cache occupancy
system.cpu1.dcache.tags.occ_task_id_blocks::1024          468                       # Occupied blocks per task id
system.cpu1.dcache.tags.age_task_id_blocks_1024::2           30                       # Occupied blocks per task id
system.cpu1.dcache.tags.age_task_id_blocks_1024::4          438                       # Occupied blocks per task id
system.cpu1.dcache.tags.occ_task_id_percent::1024     0.914062                       # Percentage of cache occupancy per task id
system.cpu1.dcache.tags.tag_accesses        332677603                       # Number of tag accesses
system.cpu1.dcache.tags.data_accesses       332677603                       # Number of data accesses
system.cpu1.dcache.pwrStateResidencyTicks::UNDEFINED 724898747000                       # Cumulative time (in ticks) in various power states
system.cpu1.dcache.ReadReq_hits::.cpu1.data    115927189                       # number of ReadReq hits
system.cpu1.dcache.ReadReq_hits::total      115927189                       # number of ReadReq hits
[...]
system.l2.ReadExReq_miss_rate::.cpu3.data     0.261197                       # miss rate for ReadExReq accesses
system.l2.ReadExReq_miss_rate::.cpu4.data     0.260056                       # miss rate for ReadExReq accesses
system.l2.ReadExReq_miss_rate::.cpu5.data     0.543951                       # miss rate for ReadExReq accesses
system.l2.ReadExReq_miss_rate::total         0.323864                       # miss rate for ReadExReq accesses
system.l2.ReadCleanReq_miss_rate::.cpu0.inst     0.224932                       # miss rate for ReadCleanReq accesses
system.l2.ReadCleanReq_miss_rate::.cpu1.inst     0.006273                       # miss rate for ReadCleanReq accesses
system.l2.ReadCleanReq_miss_rate::.cpu2.inst     0.001542                       # miss rate for ReadCleanReq accesses
system.l2.ReadCleanReq_miss_rate::.cpu3.inst     0.005484                       # miss rate for ReadCleanReq accesses
system.l2.ReadCleanReq_miss_rate::.cpu4.inst     0.001027                       # miss rate for ReadCleanReq accesses
system.l2.ReadCleanReq_miss_rate::.cpu5.inst     0.041506                       # miss rate for ReadCleanReq accesses
system.l2.ReadCleanReq_miss_rate::total      0.026257                       # miss rate for ReadCleanReq accesses
system.l2.ReadSharedReq_miss_rate::.cpu0.data     0.066407                       # miss rate for ReadSharedReq accesses
system.l2.ReadSharedReq_miss_rate::.cpu1.data     0.000685                       # miss rate for ReadSharedReq accesses
system.l2.ReadSharedReq_miss_rate::.cpu2.data     0.000475                       # miss rate for ReadSharedReq accesses
system.l2.ReadSharedReq_miss_rate::.cpu3.data     0.000715                       # miss rate for ReadSharedReq accesses
system.l2.ReadSharedReq_miss_rate::.cpu4.data     0.000601                       # miss rate for ReadSharedReq accesses
system.l2.ReadSharedReq_miss_rate::.cpu5.data     0.206629                       # miss rate for ReadSharedReq accesses
system.l2.ReadSharedReq_miss_rate::total     0.034130                       # miss rate for ReadSharedReq accesses
system.l2.demand_miss_rate::.cpu0.inst       0.224932                       # miss rate for demand accesses
system.l2.demand_miss_rate::.cpu0.data       0.169023                       # miss rate for demand accesses
system.l2.demand_miss_rate::.cpu1.inst       0.006273                       # miss rate for demand accesses
system.l2.demand_miss_rate::.cpu1.data       0.063618                       # miss rate for demand accesses
system.l2.demand_miss_rate::.cpu2.inst       0.001542                       # miss rate for demand accesses
system.l2.demand_miss_rate::.cpu2.data       0.042348                       # miss rate for demand accesses
system.l2.demand_miss_rate::.cpu3.inst       0.005484                       # miss rate for demand accesses
system.l2.demand_miss_rate::.cpu3.data       0.035869                       # miss rate for demand accesses
system.l2.demand_miss_rate::.cpu4.inst       0.001027                       # miss rate for demand accesses
system.l2.demand_miss_rate::.cpu4.data       0.042160                       # miss rate for demand accesses
system.l2.demand_miss_rate::.cpu5.inst       0.041506                       # miss rate for demand accesses
system.l2.demand_miss_rate::.cpu5.data       0.344057                       # miss rate for demand accesses
system.l2.demand_miss_rate::total            0.099800                       # miss rate for demand accesses
system.l2.overall_miss_rate::.cpu0.inst      0.224932                       # miss rate for overall accesses
system.l2.overall_miss_rate::.cpu0.data      0.169023                       # miss rate for overall accesses
system.l2.overall_miss_rate::.cpu1.inst      0.006273                       # miss rate for overall accesses
system.l2.overall_miss_rate::.cpu1.data      0.063618                       # miss rate for overall accesses
system.l2.overall_miss_rate::.cpu2.inst      0.001542                       # miss rate for overall accesses
system.l2.overall_miss_rate::.cpu2.data      0.042348                       # miss rate for overall accesses
system.l2.overall_miss_rate::.cpu3.inst      0.005484                       # miss rate for overall accesses
system.l2.overall_miss_rate::.cpu3.data      0.035869                       # miss rate for overall accesses
system.l2.overall_miss_rate::.cpu4.inst      0.001027                       # miss rate for overall accesses
system.l2.overall_miss_rate::.cpu4.data      0.042160                       # miss rate for overall accesses
system.l2.overall_miss_rate::.cpu5.inst      0.041506                       # miss rate for overall accesses
system.l2.overall_miss_rate::.cpu5.data      0.344057                       # miss rate for overall accesses
system.l2.overall_miss_rate::total           0.099800                       # miss rate for overall accesses
system.l2.blocked_cycles::no_mshrs                  0                       # number of cycles access was blocked
system.l2.blocked_cycles::no_targets                0                       # number of cycles access was blocked
system.l2.blocked::no_mshrs                         0                       # number of cycles access was blocked
system.l2.blocked::no_targets                       0                       # number of cycles access was blocked
system.l2.avg_blocked_cycles::no_mshrs            nan                       # average number of cycles each access was blocked
system.l2.avg_blocked_cycles::no_targets          nan                       # average number of cycles each access was blocked
system.l2.writebacks::.writebacks               43797                       # number of writebacks
system.l2.writebacks::total                     43797                       # number of writebacks
system.l2.replacements                          65600                       # number of replacements
system.membus.snoop_filter.tot_requests        201114                       # Total number of requests made to the snoop filter.
system.membus.snoop_filter.hit_single_requests        70466                       # Number of requests hitting in the snoop filter with a single holder of the requested data.
system.membus.snoop_filter.hit_multi_requests            0                       # Number of requests hitting in the snoop filter with multiple (>1) holders of the requested data.
system.membus.snoop_filter.tot_snoops               0                       # Total number of snoops made to the snoop filter.
system.membus.snoop_filter.hit_single_snoops            0                       # Number of snoops hitting in the snoop filter with a single holder of the requested data.
system.membus.snoop_filter.hit_multi_snoops            0                       # Number of snoops hitting in the snoop filter with multiple (>1) holders of the requested data.
system.membus.pwrStateResidencyTicks::UNDEFINED 724898747000                       # Cumulative time (in ticks) in various power states
system.membus.trans_dist::ReadResp              32468                       # Transaction distribution
system.membus.trans_dist::WritebackDirty        43797                       # Transaction distribution
system.membus.trans_dist::CleanEvict            20800                       # Transaction distribution
system.membus.trans_dist::UpgradeReq             4267                       # Transaction distribution
system.membus.trans_dist::ReadExReq             99782                       # Transaction distribution
system.membus.trans_dist::ReadExResp            98450                       # Transaction distribution
system.membus.trans_dist::ReadSharedReq         32468                       # Transaction distribution
system.membus.pkt_count_system.l2.mem_side::system.mem_ctrls.port       332032                       # Packet count per connected master and slave (bytes)
system.membus.pkt_count_system.l2.mem_side::total       332032                       # Packet count per connected master and slave (bytes)
system.membus.pkt_count::total                 332032                       # Packet count per connected master and slave (bytes)
system.membus.pkt_size_system.l2.mem_side::system.mem_ctrls.port     11181760                       # Cumulative packet size per connected master and slave (bytes)
system.membus.pkt_size_system.l2.mem_side::total     11181760                       # Cumulative packet size per connected master and slave (bytes)
system.membus.pkt_size::total                11181760                       # Cumulative packet size per connected master and slave (bytes)
system.membus.snoops                                0                       # Total snoops (count)
system.membus.snoopTraffic                          0                       # Total snoop traffic (bytes)
system.membus.snoop_fanout::samples            136517                       # Request fanout histogram
system.membus.snoop_fanout::mean                    0                       # Request fanout histogram
system.membus.snoop_fanout::stdev                   0                       # Request fanout histogram
system.membus.snoop_fanout::underflows              0      0.00%      0.00% # Request fanout histogram
system.membus.snoop_fanout::0                  136517    100.00%    100.00% # Request fanout histogram
system.membus.snoop_fanout::1                       0      0.00%    100.00% # Request fanout histogram
system.membus.snoop_fanout::overflows               0      0.00%    100.00% # Request fanout histogram
system.membus.snoop_fanout::min_value               0                       # Request fanout histogram
system.membus.snoop_fanout::max_value               0                       # Request fanout histogram
system.membus.snoop_fanout::total              136517                       # Request fanout histogram
system.tol2bus.snoop_filter.tot_requests      3401118                       # Total number of requests made to the snoop filter.
system.tol2bus.snoop_filter.hit_single_requests      1367163                       # Number of requests hitting in the snoop filter with a single holder of the requested data.
system.tol2bus.snoop_filter.hit_multi_requests       974589                       # Number of requests hitting in the snoop filter with multiple (>1) holders of the requested data.
system.tol2bus.snoop_filter.tot_snoops           1021                       # Total number of snoops made to the snoop filter.
system.tol2bus.snoop_filter.hit_single_snoops          952                       # Number of snoops hitting in the snoop filter with a single holder of the requested data.
system.tol2bus.snoop_filter.hit_multi_snoops           69                       # Number of snoops hitting in the snoop filter with multiple (>1) holders of the requested data.
system.tol2bus.pwrStateResidencyTicks::UNDEFINED 724898747000                       # Cumulative time (in ticks) in various power states
system.tol2bus.trans_dist::ReadResp           1397905                       # Transaction distribution
system.tol2bus.trans_dist::WritebackDirty       898757                       # Transaction distribution
system.tol2bus.trans_dist::WritebackClean       241925                       # Transaction distribution
system.tol2bus.trans_dist::CleanEvict          549014                       # Transaction distribution
system.tol2bus.trans_dist::UpgradeReq            5338                       # Transaction distribution
system.tol2bus.trans_dist::UpgradeResp           5338                       # Transaction distribution
system.tol2bus.trans_dist::ReadExReq           308179                       # Transaction distribution
system.tol2bus.trans_dist::ReadExResp          308179                       # Transaction distribution
system.tol2bus.trans_dist::ReadCleanReq        244963                       # Transaction distribution
system.tol2bus.trans_dist::ReadSharedReq      1152942                       # Transaction distribution
system.tol2bus.pkt_count_system.cpu0.icache.mem_side::system.l2.cpu_side        69976                       # Packet count per connected master and slave (bytes)
system.tol2bus.pkt_count_system.cpu0.dcache.mem_side::system.l2.cpu_side       890640                       # Packet count per connected master and slave (bytes)
system.tol2bus.pkt_count_system.cpu1.icache.mem_side::system.l2.cpu_side       160659                       # Packet count per connected master and slave (bytes)
system.tol2bus.pkt_count_system.cpu1.dcache.mem_side::system.l2.cpu_side       792201                       # Packet count per connected master and slave (bytes)
system.tol2bus.pkt_count_system.cpu2.icache.mem_side::system.l2.cpu_side       157049                       # Packet count per connected master and slave (bytes)
system.tol2bus.pkt_count_system.cpu2.dcache.mem_side::system.l2.cpu_side       777414                       # Packet count per connected master and slave (bytes)
system.tol2bus.pkt_count_system.cpu3.icache.mem_side::system.l2.cpu_side       156493                       # Packet count per connected master and slave (bytes)
system.tol2bus.pkt_count_system.cpu3.dcache.mem_side::system.l2.cpu_side       756209                       # Packet count per connected master and slave (bytes)
system.tol2bus.pkt_count_system.cpu4.icache.mem_side::system.l2.cpu_side       160206                       # Packet count per connected master and slave (bytes)
system.tol2bus.pkt_count_system.cpu4.dcache.mem_side::system.l2.cpu_side       772555                       # Packet count per connected master and slave (bytes)
system.tol2bus.pkt_count_system.cpu5.icache.mem_side::system.l2.cpu_side        27468                       # Packet count per connected master and slave (bytes)
system.tol2bus.pkt_count_system.cpu5.dcache.mem_side::system.l2.cpu_side       391670                       # Packet count per connected master and slave (bytes)
system.tol2bus.pkt_count::total               5112540                       # Packet count per connected master and slave (bytes)
system.tol2bus.pkt_size_system.cpu0.icache.mem_side::system.l2.cpu_side      2974720                       # Cumulative packet size per connected master and slave (bytes)
system.tol2bus.pkt_size_system.cpu0.dcache.mem_side::system.l2.cpu_side     36713216                       # Cumulative packet size per connected master and slave (bytes)
system.tol2bus.pkt_size_system.cpu1.icache.mem_side::system.l2.cpu_side      6843968                       # Cumulative packet size per connected master and slave (bytes)
system.tol2bus.pkt_size_system.cpu1.dcache.mem_side::system.l2.cpu_side     25900096                       # Cumulative packet size per connected master and slave (bytes)
system.tol2bus.pkt_size_system.cpu2.icache.mem_side::system.l2.cpu_side      6689920                       # Cumulative packet size per connected master and slave (bytes)
system.tol2bus.pkt_size_system.cpu2.dcache.mem_side::system.l2.cpu_side     24237184                       # Cumulative packet size per connected master and slave (bytes)
system.tol2bus.pkt_size_system.cpu3.icache.mem_side::system.l2.cpu_side      6666304                       # Cumulative packet size per connected master and slave (bytes)
system.tol2bus.pkt_size_system.cpu3.dcache.mem_side::system.l2.cpu_side     25393344                       # Cumulative packet size per connected master and slave (bytes)
system.tol2bus.pkt_size_system.cpu4.icache.mem_side::system.l2.cpu_side      6824704                       # Cumulative packet size per connected master and slave (bytes)
system.tol2bus.pkt_size_system.cpu4.dcache.mem_side::system.l2.cpu_side     24063808                       # Cumulative packet size per connected master and slave (bytes)
system.tol2bus.pkt_size_system.cpu5.icache.mem_side::system.l2.cpu_side      1161216                       # Cumulative packet size per connected master and slave (bytes)
system.tol2bus.pkt_size_system.cpu5.dcache.mem_side::system.l2.cpu_side     14724544                       # Cumulative packet size per connected master and slave (bytes)
system.tol2bus.pkt_size::total              182193024                       # Cumulative packet size per connected master and slave (bytes)
system.tol2bus.snoops                           65600                       # Total snoops (count)
system.tol2bus.snoopTraffic                   2803008                       # Total snoop traffic (bytes)
system.tol2bus.snoop_fanout::samples          1777022                       # Request fanout histogram
system.tol2bus.snoop_fanout::mean            0.670967                       # Request fanout histogram
system.tol2bus.snoop_fanout::stdev           1.051522                       # Request fanout histogram
system.tol2bus.snoop_fanout::underflows             0      0.00%      0.00% # Request fanout histogram
system.tol2bus.snoop_fanout::0                1123984     63.25%     63.25% # Request fanout histogram
system.tol2bus.snoop_fanout::1                 317364     17.86%     81.11% # Request fanout histogram
system.tol2bus.snoop_fanout::2                 173655      9.77%     90.88% # Request fanout histogram
system.tol2bus.snoop_fanout::3                 122206      6.88%     97.76% # Request fanout histogram
system.tol2bus.snoop_fanout::4                  38034      2.14%     99.90% # Request fanout histogram
system.tol2bus.snoop_fanout::5                   1779      0.10%    100.00% # Request fanout histogram
system.tol2bus.snoop_fanout::6                      0      0.00%    100.00% # Request fanout histogram
system.tol2bus.snoop_fanout::7                      0      0.00%    100.00% # Request fanout histogram
system.tol2bus.snoop_fanout::8                      0      0.00%    100.00% # Request fanout histogram
system.tol2bus.snoop_fanout::9                      0      0.00%    100.00% # Request fanout histogram
system.tol2bus.snoop_fanout::10                     0      0.00%    100.00% # Request fanout histogram
system.tol2bus.snoop_fanout::11                     0      0.00%    100.00% # Request fanout histogram
system.tol2bus.snoop_fanout::12                     0      0.00%    100.00% # Request fanout histogram
system.tol2bus.snoop_fanout::13                     0      0.00%    100.00% # Request fanout histogram
system.tol2bus.snoop_fanout::14                     0      0.00%    100.00% # Request fanout histogram
system.tol2bus.snoop_fanout::15                     0      0.00%    100.00% # Request fanout histogram
system.tol2bus.snoop_fanout::16                     0      0.00%    100.00% # Request fanout histogram
system.tol2bus.snoop_fanout::17                     0      0.00%    100.00% # Request fanout histogram
system.tol2bus.snoop_fanout::18                     0      0.00%    100.00% # Request fanout histogram
system.tol2bus.snoop_fanout::19                     0      0.00%    100.00% # Request fanout histogram
system.tol2bus.snoop_fanout::20                     0      0.00%    100.00% # Request fanout histogram
system.tol2bus.snoop_fanout::21                     0      0.00%    100.00% # Request fanout histogram
system.tol2bus.snoop_fanout::22                     0      0.00%    100.00% # Request fanout histogram
system.tol2bus.snoop_fanout::23                     0      0.00%    100.00% # Request fanout histogram
system.tol2bus.snoop_fanout::24                     0      0.00%    100.00% # Request fanout histogram
system.tol2bus.snoop_fanout::overflows              0      0.00%    100.00% # Request fanout histogram
system.tol2bus.snoop_fanout::min_value              0                       # Request fanout histogram
system.tol2bus.snoop_fanout::max_value              5                       # Request fanout histogram
system.tol2bus.snoop_fanout::total            1777022                       # Request fanout histogram

---------- End Simulation Statistics   ----------
